[General]
network = TicToc_ex16
sim-time-limit = 250000s
**.tic[*].hopCount.result-recording-modes = +vector
*.numCentralNodes = ${N=2..100 step 2}
repeat = 4

